!-Generator IDFEditor 1.55
!-Option SortedOrder

!-NOTE: All comments with '!-' are ignored by the IDFEditor and are generated automatically.
!-      Use '!' comments if they need to be retained when using the IDFEditor.


!-   ===========  ALL OBJECTS IN CLASS: VERSION ===========

Version,
    25.1;                    !- Version Identifier


!-   ===========  ALL OBJECTS IN CLASS: SIMULATIONCONTROL ===========

SimulationControl,
    No,                      !- Do Zone Sizing Calculation
    Yes,                     !- Do System Sizing Calculation
    No,                      !- Do Plant Sizing Calculation
    No,                      !- Run Simulation for Sizing Periods
    Yes,                     !- Run Simulation for Weather File Run Periods
    No,                      !- Do HVAC Sizing Simulation for Sizing Periods
    1;                       !- Maximum Number of HVAC Sizing Simulation Passes


!-   ===========  ALL OBJECTS IN CLASS: BUILDING ===========

Building,
    Ex1,                     !- Name
    0,                       !- North Axis {deg}
    City,                    !- Terrain
    0.04,                    !- Loads Convergence Tolerance Value {W}
    0.4,                     !- Temperature Convergence Tolerance Value {deltaC}
    FullExterior,            !- Solar Distribution
    25,                      !- Maximum Number of Warmup Days
    1;                       !- Minimum Number of Warmup Days


!-   ===========  ALL OBJECTS IN CLASS: SURFACECONVECTIONALGORITHM:INSIDE ===========

SurfaceConvectionAlgorithm:Inside,
    TARP;                    !- Algorithm


!-   ===========  ALL OBJECTS IN CLASS: SURFACECONVECTIONALGORITHM:OUTSIDE ===========

SurfaceConvectionAlgorithm:Outside,
    DOE-2;                   !- Algorithm


!-   ===========  ALL OBJECTS IN CLASS: HEATBALANCEALGORITHM ===========

HeatBalanceAlgorithm,
    ConductionTransferFunction,  !- Algorithm
    200,                     !- Surface Temperature Upper Limit {C}
    0.1,                     !- Minimum Surface Convection Heat Transfer Coefficient Value {W/m2-K}
    1000;                    !- Maximum Surface Convection Heat Transfer Coefficient Value {W/m2-K}


!-   ===========  ALL OBJECTS IN CLASS: TIMESTEP ===========

Timestep,
    6;                       !- Number of Timesteps per Hour


!-   ===========  ALL OBJECTS IN CLASS: SITE:LOCATION ===========

Site:Location,
    Ottawa Int'l_ON_CAN Design_Conditions,  !- Name
    45.32,                   !- Latitude {deg}
    -75.67,                  !- Longitude {deg}
    -5.00,                   !- Time Zone {hr}
    114.00;                  !- Elevation {m}


!-   ===========  ALL OBJECTS IN CLASS: SIZINGPERIOD:DESIGNDAY ===========

SizingPeriod:DesignDay,
    Ottawa Int'l Ann Htg 99.6% Condns DB,  !- Name
    1,                       !- Month
    21,                      !- Day of Month
    WinterDesignDay,         !- Day Type
    -24.5,                   !- Maximum Dry-Bulb Temperature {C}
    0.0,                     !- Daily Dry-Bulb Temperature Range {deltaC}
    DefaultMultipliers,      !- Dry-Bulb Temperature Range Modifier Type
    ,                        !- Dry-Bulb Temperature Range Modifier Day Schedule Name
    Wetbulb,                 !- Humidity Condition Type
    -24.5,                   !- Wetbulb or DewPoint at Maximum Dry-Bulb {C}
    ,                        !- Humidity Condition Day Schedule Name
    ,                        !- Humidity Ratio at Maximum Dry-Bulb {kgWater/kgDryAir}
    ,                        !- Enthalpy at Maximum Dry-Bulb {J/kg}
    ,                        !- Daily Wet-Bulb Temperature Range {deltaC}
    99963.,                  !- Barometric Pressure {Pa}
    3.6,                     !- Wind Speed {m/s}
    290,                     !- Wind Direction {deg}
    No,                      !- Rain Indicator
    No,                      !- Snow Indicator
    No,                      !- Daylight Saving Time Indicator
    ASHRAEClearSky,          !- Solar Model Indicator
    ,                        !- Beam Solar Day Schedule Name
    ,                        !- Diffuse Solar Day Schedule Name
    ,                        !- ASHRAE Clear Sky Optical Depth for Beam Irradiance (taub) {dimensionless}
    ,                        !- ASHRAE Clear Sky Optical Depth for Diffuse Irradiance (taud) {dimensionless}
    0.00;                    !- Sky Clearness

SizingPeriod:DesignDay,
    Ottawa Int'l Ann Clg .4% Condns DB=>MWB,  !- Name
    7,                       !- Month
    21,                      !- Day of Month
    SummerDesignDay,         !- Day Type
    30.6,                    !- Maximum Dry-Bulb Temperature {C}
    10.1,                    !- Daily Dry-Bulb Temperature Range {deltaC}
    DefaultMultipliers,      !- Dry-Bulb Temperature Range Modifier Type
    ,                        !- Dry-Bulb Temperature Range Modifier Day Schedule Name
    Wetbulb,                 !- Humidity Condition Type
    21.6,                    !- Wetbulb or DewPoint at Maximum Dry-Bulb {C}
    ,                        !- Humidity Condition Day Schedule Name
    ,                        !- Humidity Ratio at Maximum Dry-Bulb {kgWater/kgDryAir}
    ,                        !- Enthalpy at Maximum Dry-Bulb {J/kg}
    ,                        !- Daily Wet-Bulb Temperature Range {deltaC}
    99963.,                  !- Barometric Pressure {Pa}
    4.3,                     !- Wind Speed {m/s}
    220,                     !- Wind Direction {deg}
    No,                      !- Rain Indicator
    No,                      !- Snow Indicator
    No,                      !- Daylight Saving Time Indicator
    ASHRAETau,               !- Solar Model Indicator
    ,                        !- Beam Solar Day Schedule Name
    ,                        !- Diffuse Solar Day Schedule Name
    0.444,                   !- ASHRAE Clear Sky Optical Depth for Beam Irradiance (taub) {dimensionless}
    2.05;                    !- ASHRAE Clear Sky Optical Depth for Diffuse Irradiance (taud) {dimensionless}


!-   ===========  ALL OBJECTS IN CLASS: RUNPERIOD ===========

RunPeriod,
    Run_P1,                  !- Name
    1,                       !- Begin Month
    1,                       !- Begin Day of Month
    2023,                    !- Begin Year
    12,                      !- End Month
    31,                      !- End Day of Month
    ,                        !- End Year
    ,                        !- Day of Week for Start Day
    Yes,                     !- Use Weather File Holidays and Special Days
    Yes,                     !- Use Weather File Daylight Saving Period
    No,                      !- Apply Weekend Holiday Rule
    Yes,                     !- Use Weather File Rain Indicators
    Yes,                     !- Use Weather File Snow Indicators
    No,                      !- Treat Weather as Actual
    Hour24;                  !- First Hour Interpolation Starting Values
! 
! 
!-   ===========  ALL OBJECTS IN CLASS: SITE:GROUNDTEMPERATURE:BUILDINGSURFACE ===========
! 
! Site:GroundTemperature:BuildingSurface,
!     16,                      !- January Ground Temperature {C}
!     16,                      !- February Ground Temperature {C}
!     17,                      !- March Ground Temperature {C}
!     17,                      !- April Ground Temperature {C}
!     19,                      !- May Ground Temperature {C}
!     19,                      !- June Ground Temperature {C}
!     19,                      !- July Ground Temperature {C}
!     19,                      !- August Ground Temperature {C}
!     18,                      !- September Ground Temperature {C}
!     17,                      !- October Ground Temperature {C}
!     17,                      !- November Ground Temperature {C}
!     16;                      !- December Ground Temperature {C}


!-   ===========  ALL OBJECTS IN CLASS: SCHEDULETYPELIMITS ===========

ScheduleTypeLimits,
    REAL,                    !- Name
    ,                        !- Lower Limit Value
    ,                        !- Upper Limit Value
    Continuous,              !- Numeric Type
    Dimensionless;           !- Unit Type

ScheduleTypeLimits,
    FREACTION,               !- Name
    0,                       !- Lower Limit Value
    1,                       !- Upper Limit Value
    Continuous,              !- Numeric Type
    Dimensionless;           !- Unit Type

ScheduleTypeLimits,
    Binary,                  !- Name
    0,                       !- Lower Limit Value
    1,                       !- Upper Limit Value
    Discrete,                !- Numeric Type
    Dimensionless;           !- Unit Type


!-   ===========  ALL OBJECTS IN CLASS: SCHEDULE:COMPACT ===========

Schedule:Compact,
    People Schedule,         !- Name
    FREACTION,               !- Schedule Type Limits Name
    Through: 12/31,          !- Field 1
    For: Weekends,           !- Field 2
    Until: 24:00,            !- Field 3
    0,                       !- Field 4
    For: AllOtherDays,       !- Field 5
    Until: 7:00,             !- Field 6
    0,                       !- Field 7
    Until: 15:00,            !- Field 8
    .9,                      !- Field 9
    Until: 17:00,            !- Field 10
    .5,                      !- Field 11
    Until: 24:00,            !- Field 12
    0;                       !- Field 13

Schedule:Compact,
    Activity Level,          !- Name
    REAL,                    !- Schedule Type Limits Name
    Through 12/31,           !- Field 1
    For: AllDays,            !- Field 2
    Until: 15:00,            !- Field 3
    140,                     !- Field 4
    Until: 17:00,            !- Field 5
    110,                     !- Field 6
    Until: 24:00,            !- Field 7
    100;                     !- Field 8

Schedule:Compact,
    Lighting Schedule,       !- Name
    FREACTION,               !- Schedule Type Limits Name
    Through: 12/31,          !- Field 1
    For: Weekends,           !- Field 2
    Until: 24:00,            !- Field 3
    0,                       !- Field 4
    For: AllOtherDays,       !- Field 5
    Until: 7:00,             !- Field 6
    0,                       !- Field 7
    Until: 15:00,            !- Field 8
    .9,                      !- Field 9
    Until: 17:00,            !- Field 10
    .6,                      !- Field 11
    Until: 24:00,            !- Field 12
    0;                       !- Field 13

Schedule:Compact,
    Equipment Schedule,      !- Name
    FREACTION,               !- Schedule Type Limits Name
    Through: 12/31,          !- Field 1
    For: Weekends,           !- Field 2
    Until: 24:00,            !- Field 3
    0,                       !- Field 4
    For: AllOtherDays,       !- Field 5
    Until: 7:00,             !- Field 6
    0,                       !- Field 7
    Until: 15:00,            !- Field 8
    .9,                      !- Field 9
    Until: 17:00,            !- Field 10
    .6,                      !- Field 11
    Until: 24:00,            !- Field 12
    0;                       !- Field 13

Schedule:Compact,
    HVAC Schedule,           !- Name
    Binary,                  !- Schedule Type Limits Name
    Through: 12/31,          !- Field 1
    For: Weekends,           !- Field 2
    Until: 24:00,            !- Field 3
    0,                       !- Field 4
    For: AllOtherDays,       !- Field 5
    Until: 7:00,             !- Field 6
    0,                       !- Field 7
    Until: 17:00,            !- Field 8
    1,                       !- Field 9
    Until: 24:00,            !- Field 10
    0;                       !- Field 11


!-   ===========  ALL OBJECTS IN CLASS: MATERIAL ===========

Material,
    F06 EIFS finish,         !- Name
    Smooth,                  !- Roughness
    0.0095,                  !- Thickness {m}
    0.72,                    !- Conductivity {W/m-K}
    1856,                    !- Density {kg/m3}
    840;                     !- Specific Heat {J/kg-K}

Material,
    F07 25mm stucco,         !- Name
    Smooth,                  !- Roughness
    0.0254,                  !- Thickness {m}
    0.72,                    !- Conductivity {W/m-K}
    1856,                    !- Density {kg/m3}
    840;                     !- Specific Heat {J/kg-K}

Material,
    F08 Metal surface,       !- Name
    Smooth,                  !- Roughness
    0.0008,                  !- Thickness {m}
    45.28,                   !- Conductivity {W/m-K}
    7824,                    !- Density {kg/m3}
    500;                     !- Specific Heat {J/kg-K}

Material,
    F09 Opaque spandrel glass,  !- Name
    Smooth,                  !- Roughness
    0.0064,                  !- Thickness {m}
    0.99,                    !- Conductivity {W/m-K}
    2528,                    !- Density {kg/m3}
    880;                     !- Specific Heat {J/kg-K}

Material,
    F10 25mm stone,          !- Name
    MediumRough,             !- Roughness
    0.0254,                  !- Thickness {m}
    3.17,                    !- Conductivity {W/m-K}
    2560,                    !- Density {kg/m3}
    790;                     !- Specific Heat {J/kg-K}

Material,
    F11 Wood siding,         !- Name
    MediumSmooth,            !- Roughness
    0.0127,                  !- Thickness {m}
    0.09,                    !- Conductivity {W/m-K}
    592,                     !- Density {kg/m3}
    1170;                    !- Specific Heat {J/kg-K}

Material,
    F12 Asphalt shingles,    !- Name
    VeryRough,               !- Roughness
    0.0032,                  !- Thickness {m}
    0.04,                    !- Conductivity {W/m-K}
    1120,                    !- Density {kg/m3}
    1260;                    !- Specific Heat {J/kg-K}

Material,
    F13 Built-up roofing,    !- Name
    Rough,                   !- Roughness
    0.0095,                  !- Thickness {m}
    0.16,                    !- Conductivity {W/m-K}
    1120,                    !- Density {kg/m3}
    1460;                    !- Specific Heat {J/kg-K}

Material,
    F14 Slate or tile,       !- Name
    VeryRough,               !- Roughness
    0.0127,                  !- Thickness {m}
    1.59,                    !- Conductivity {W/m-K}
    1920,                    !- Density {kg/m3}
    1260;                    !- Specific Heat {J/kg-K}

Material,
    F15 Wood shingles,       !- Name
    VeryRough,               !- Roughness
    0.0064,                  !- Thickness {m}
    0.04,                    !- Conductivity {W/m-K}
    592,                     !- Density {kg/m3}
    1300;                    !- Specific Heat {J/kg-K}

Material,
    F16 Acoustic tile,       !- Name
    MediumSmooth,            !- Roughness
    0.0191,                  !- Thickness {m}
    0.06,                    !- Conductivity {W/m-K}
    368,                     !- Density {kg/m3}
    590;                     !- Specific Heat {J/kg-K}

Material,
    F17 Carpet,              !- Name
    MediumRough,             !- Roughness
    0.0127,                  !- Thickness {m}
    0.06,                    !- Conductivity {W/m-K}
    288,                     !- Density {kg/m3}
    1380;                    !- Specific Heat {J/kg-K}

Material,
    F18 Terrazzo,            !- Name
    Rough,                   !- Roughness
    0.0254,                  !- Thickness {m}
    1.8,                     !- Conductivity {W/m-K}
    2560,                    !- Density {kg/m3}
    790;                     !- Specific Heat {J/kg-K}

Material,
    G01 16mm gypsum board,   !- Name
    MediumSmooth,            !- Roughness
    0.0159,                  !- Thickness {m}
    0.16,                    !- Conductivity {W/m-K}
    800,                     !- Density {kg/m3}
    1090;                    !- Specific Heat {J/kg-K}

Material,
    G01a 19mm gypsum board,  !- Name
    MediumSmooth,            !- Roughness
    0.019,                   !- Thickness {m}
    0.16,                    !- Conductivity {W/m-K}
    800,                     !- Density {kg/m3}
    1090;                    !- Specific Heat {J/kg-K}

Material,
    G02 16mm plywood,        !- Name
    Smooth,                  !- Roughness
    0.0159,                  !- Thickness {m}
    0.12,                    !- Conductivity {W/m-K}
    544,                     !- Density {kg/m3}
    1210;                    !- Specific Heat {J/kg-K}

Material,
    G03 13mm fiberboard sheathing,  !- Name
    Smooth,                  !- Roughness
    0.0127,                  !- Thickness {m}
    0.07,                    !- Conductivity {W/m-K}
    400,                     !- Density {kg/m3}
    1300;                    !- Specific Heat {J/kg-K}

Material,
    G04 13mm wood,           !- Name
    MediumSmooth,            !- Roughness
    0.0127,                  !- Thickness {m}
    0.15,                    !- Conductivity {W/m-K}
    608,                     !- Density {kg/m3}
    1630;                    !- Specific Heat {J/kg-K}

Material,
    G05 25mm wood,           !- Name
    MediumSmooth,            !- Roughness
    0.0254,                  !- Thickness {m}
    0.15,                    !- Conductivity {W/m-K}
    608,                     !- Density {kg/m3}
    1630;                    !- Specific Heat {J/kg-K}

Material,
    G06 50mm wood,           !- Name
    MediumSmooth,            !- Roughness
    0.0508,                  !- Thickness {m}
    0.15,                    !- Conductivity {W/m-K}
    608,                     !- Density {kg/m3}
    1630;                    !- Specific Heat {J/kg-K}

Material,
    G07 100mm wood,          !- Name
    MediumSmooth,            !- Roughness
    0.1016,                  !- Thickness {m}
    0.15,                    !- Conductivity {W/m-K}
    608,                     !- Density {kg/m3}
    1630;                    !- Specific Heat {J/kg-K}

Material,
    I01 25mm insulation board,  !- Name
    MediumRough,             !- Roughness
    0.0254,                  !- Thickness {m}
    0.03,                    !- Conductivity {W/m-K}
    43,                      !- Density {kg/m3}
    1210;                    !- Specific Heat {J/kg-K}

Material,
    I02 50mm insulation board,  !- Name
    MediumRough,             !- Roughness
    0.0508,                  !- Thickness {m}
    0.03,                    !- Conductivity {W/m-K}
    43,                      !- Density {kg/m3}
    1210;                    !- Specific Heat {J/kg-K}

Material,
    I03 75mm insulation board,  !- Name
    MediumRough,             !- Roughness
    0.0762,                  !- Thickness {m}
    0.03,                    !- Conductivity {W/m-K}
    43,                      !- Density {kg/m3}
    1210;                    !- Specific Heat {J/kg-K}

Material,
    I04 89mm batt insulation,!- Name
    VeryRough,               !- Roughness
    0.0894,                  !- Thickness {m}
    0.05,                    !- Conductivity {W/m-K}
    19,                      !- Density {kg/m3}
    960;                     !- Specific Heat {J/kg-K}

Material,
    I05 154mm batt insulation,  !- Name
    VeryRough,               !- Roughness
    0.1544,                  !- Thickness {m}
    0.05,                    !- Conductivity {W/m-K}
    19,                      !- Density {kg/m3}
    960;                     !- Specific Heat {J/kg-K}

Material,
    I06 244mm batt insulation,  !- Name
    VeryRough,               !- Roughness
    0.2438,                  !- Thickness {m}
    0.05,                    !- Conductivity {W/m-K}
    19,                      !- Density {kg/m3}
    960;                     !- Specific Heat {J/kg-K}

Material,
    M01 100mm brick,         !- Name
    MediumRough,             !- Roughness
    0.1016,                  !- Thickness {m}
    0.89,                    !- Conductivity {W/m-K}
    1920,                    !- Density {kg/m3}
    790;                     !- Specific Heat {J/kg-K}

Material,
    M02 150mm lightweight concrete block,  !- Name
    MediumRough,             !- Roughness
    0.1524,                  !- Thickness {m}
    0.49,                    !- Conductivity {W/m-K}
    512,                     !- Density {kg/m3}
    880;                     !- Specific Heat {J/kg-K}

Material,
    M03 200mm lightweight concrete block,  !- Name
    MediumRough,             !- Roughness
    0.2032,                  !- Thickness {m}
    0.5,                     !- Conductivity {W/m-K}
    464,                     !- Density {kg/m3}
    880;                     !- Specific Heat {J/kg-K}

Material,
    M04 300mm lightweight concrete block,  !- Name
    MediumRough,             !- Roughness
    0.3048,                  !- Thickness {m}
    0.71,                    !- Conductivity {W/m-K}
    512,                     !- Density {kg/m3}
    880;                     !- Specific Heat {J/kg-K}

Material,
    M05 200mm concrete block,!- Name
    MediumRough,             !- Roughness
    0.2032,                  !- Thickness {m}
    1.11,                    !- Conductivity {W/m-K}
    800,                     !- Density {kg/m3}
    920;                     !- Specific Heat {J/kg-K}

Material,
    M06 300mm concrete block,!- Name
    MediumRough,             !- Roughness
    0.3048,                  !- Thickness {m}
    1.4,                     !- Conductivity {W/m-K}
    800,                     !- Density {kg/m3}
    920;                     !- Specific Heat {J/kg-K}

Material,
    M07 150mm lightweight concrete block (filled),  !- Name
    MediumRough,             !- Roughness
    0.1524,                  !- Thickness {m}
    0.29,                    !- Conductivity {W/m-K}
    512,                     !- Density {kg/m3}
    880;                     !- Specific Heat {J/kg-K}

Material,
    M08 200mm lightweight concrete block (filled),  !- Name
    MediumRough,             !- Roughness
    0.2032,                  !- Thickness {m}
    0.26,                    !- Conductivity {W/m-K}
    464,                     !- Density {kg/m3}
    880;                     !- Specific Heat {J/kg-K}

Material,
    M09 300mm lightweight concrete block (filled),  !- Name
    MediumRough,             !- Roughness
    0.3048,                  !- Thickness {m}
    0.29,                    !- Conductivity {W/m-K}
    512,                     !- Density {kg/m3}
    880;                     !- Specific Heat {J/kg-K}

Material,
    M10 200mm concrete block (filled),  !- Name
    MediumRough,             !- Roughness
    0.2032,                  !- Thickness {m}
    0.72,                    !- Conductivity {W/m-K}
    800,                     !- Density {kg/m3}
    920;                     !- Specific Heat {J/kg-K}

Material,
    M11 100mm lightweight concrete,  !- Name
    MediumRough,             !- Roughness
    0.1016,                  !- Thickness {m}
    0.53,                    !- Conductivity {W/m-K}
    1280,                    !- Density {kg/m3}
    840;                     !- Specific Heat {J/kg-K}

Material,
    M12 150mm lightweight concrete,  !- Name
    MediumRough,             !- Roughness
    0.1524,                  !- Thickness {m}
    0.53,                    !- Conductivity {W/m-K}
    1280,                    !- Density {kg/m3}
    840;                     !- Specific Heat {J/kg-K}

Material,
    M13 200mm lightweight concrete,  !- Name
    MediumRough,             !- Roughness
    0.2032,                  !- Thickness {m}
    0.53,                    !- Conductivity {W/m-K}
    1280,                    !- Density {kg/m3}
    840;                     !- Specific Heat {J/kg-K}

Material,
    M14a 100mm heavyweight concrete,  !- Name
    MediumRough,             !- Roughness
    0.1016,                  !- Thickness {m}
    1.95,                    !- Conductivity {W/m-K}
    2240,                    !- Density {kg/m3}
    900;                     !- Specific Heat {J/kg-K}

Material,
    M14 150mm heavyweight concrete,  !- Name
    MediumRough,             !- Roughness
    0.1524,                  !- Thickness {m}
    1.95,                    !- Conductivity {W/m-K}
    2240,                    !- Density {kg/m3}
    900;                     !- Specific Heat {J/kg-K}

Material,
    M15 200mm heavyweight concrete,  !- Name
    MediumRough,             !- Roughness
    0.2032,                  !- Thickness {m}
    1.95,                    !- Conductivity {W/m-K}
    2240,                    !- Density {kg/m3}
    900;                     !- Specific Heat {J/kg-K}

Material,
    M16 300mm heavyweight concrete,  !- Name
    MediumRough,             !- Roughness
    0.3048,                  !- Thickness {m}
    1.95,                    !- Conductivity {W/m-K}
    2240,                    !- Density {kg/m3}
    900;                     !- Specific Heat {J/kg-K}

Material,
    M17 50mm lightweight concrete roof ballast,  !- Name
    MediumRough,             !- Roughness
    0.0508,                  !- Thickness {m}
    0.19,                    !- Conductivity {W/m-K}
    640,                     !- Density {kg/m3}
    840;                     !- Specific Heat {J/kg-K}

Material,
    Asbestos-cement board - 3.2mm,  !- Name
    Smooth,                  !- Roughness
    0.0032,                  !- Thickness {m}
    0.58,                    !- Conductivity {W/m-K}
    1900,                    !- Density {kg/m3}
    1000;                    !- Specific Heat {J/kg-K}

Material,
    Asbestos-cement board - 6.4mm,  !- Name
    Smooth,                  !- Roughness
    0.0064,                  !- Thickness {m}
    0.58,                    !- Conductivity {W/m-K}
    1900,                    !- Density {kg/m3}
    1000;                    !- Specific Heat {J/kg-K}

Material,
    Gypsum or plaster board - 9.5mm,  !- Name
    MediumSmooth,            !- Roughness
    0.0095,                  !- Thickness {m}
    0.58,                    !- Conductivity {W/m-K}
    800,                     !- Density {kg/m3}
    1090;                    !- Specific Heat {J/kg-K}

Material,
    Gypsum or plaster board - 2.7mm,  !- Name
    MediumSmooth,            !- Roughness
    0.0027,                  !- Thickness {m}
    0.58,                    !- Conductivity {W/m-K}
    800,                     !- Density {kg/m3}
    1090;                    !- Specific Heat {J/kg-K}

Material,
    Gypsum or plaster board - 5.9mm,  !- Name
    MediumSmooth,            !- Roughness
    0.0059,                  !- Thickness {m}
    0.58,                    !- Conductivity {W/m-K}
    800,                     !- Density {kg/m3}
    1090;                    !- Specific Heat {J/kg-K}

Material,
    Plywood (Douglas Fir) - 6.4mm,  !- Name
    MediumSmooth,            !- Roughness
    0.0064,                  !- Thickness {m}
    0.12,                    !- Conductivity {W/m-K}
    540,                     !- Density {kg/m3}
    1210;                    !- Specific Heat {J/kg-K}

Material,
    Plywood (Douglas Fir) - 9.5mm,  !- Name
    Smooth,                  !- Roughness
    0.0095,                  !- Thickness {m}
    0.12,                    !- Conductivity {W/m-K}
    540,                     !- Density {kg/m3}
    1210;                    !- Specific Heat {J/kg-K}

Material,
    Plywood (Douglas Fir) - 12.7mm,  !- Name
    Smooth,                  !- Roughness
    0.0127,                  !- Thickness {m}
    0.12,                    !- Conductivity {W/m-K}
    540,                     !- Density {kg/m3}
    1210;                    !- Specific Heat {J/kg-K}

Material,
    Plywood (Douglas Fir) - 15.9mm,  !- Name
    Smooth,                  !- Roughness
    0.0159,                  !- Thickness {m}
    0.12,                    !- Conductivity {W/m-K}
    540,                     !- Density {kg/m3}
    1210;                    !- Specific Heat {J/kg-K}

Material,
    Plywood or wood panels - 19.0mm,  !- Name
    Smooth,                  !- Roughness
    0.019,                   !- Thickness {m}
    0.12,                    !- Conductivity {W/m-K}
    540,                     !- Density {kg/m3}
    1210;                    !- Specific Heat {J/kg-K}

Material,
    Sheathing - regular density - 12.7mm,  !- Name
    Smooth,                  !- Roughness
    0.0127,                  !- Thickness {m}
    0.055,                   !- Conductivity {W/m-K}
    290,                     !- Density {kg/m3}
    1300;                    !- Specific Heat {J/kg-K}

Material,
    Sheathing - regular density - 19.8mm,  !- Name
    Smooth,                  !- Roughness
    0.0198,                  !- Thickness {m}
    0.055,                   !- Conductivity {W/m-K}
    290,                     !- Density {kg/m3}
    1300;                    !- Specific Heat {J/kg-K}

Material,
    Sheathing intermediate density - 12.7mm,  !- Name
    Smooth,                  !- Roughness
    0.0127,                  !- Thickness {m}
    0.057,                   !- Conductivity {W/m-K}
    350,                     !- Density {kg/m3}
    1300;                    !- Specific Heat {J/kg-K}

Material,
    Nail-base sheathing - 12.7mm,  !- Name
    Smooth,                  !- Roughness
    0.0127,                  !- Thickness {m}
    0.057,                   !- Conductivity {W/m-K}
    400,                     !- Density {kg/m3}